OpenDSS/Examples/InverterModels/PVSystem2/InvControl2/MonitoredVoltage/Local_voltage_max_VLN_Node.Txt

LINE-GROUND and LINE-LINE VOLTAGES BY BUS & NODE

Bus  Node    VLN (kV)   Angle      pu     Base kV    Node-Node   VLL (kV)  Angle      pu

A .. 1       8.1415 /_    9.4    1.0219    13.800        1-2     14.105 /_   39.4    1.0221
   - 2         8.15 /_ -110.5    1.0229    13.800        2-3     14.107 /_  -80.5    1.0222
   - 3       8.1432 /_  129.5    1.0221    13.800        3-1      14.11 /_  159.5    1.0225
B .. 1       8.1589 /_   12.4     1.024    13.800        1-2     14.099 /_   42.2    1.0217
   - 2       8.0969 /_ -107.9    1.0162    13.800        2-3     13.974 /_  -77.8    1.0126
   - 3       8.0649 /_  132.5    1.0122    13.800        3-1     14.052 /_  162.6    1.0183
